/*--------------------------------*- C++ -*----------------------------------*\
| =========                 |                                                 |
| \\      /  F ield         | OpenFOAM: The Open Source CFD Toolbox           |
|  \\    /   O peration     | Version:  5                                     |
|   \\  /    A nd           | Web:      www.OpenFOAM.org                      |
|    \\/     M anipulation  |                                                 |
\*---------------------------------------------------------------------------*/
FoamFile
{
    version     2.0;
    format      ascii;
    class       volScalarField;
    location    "0";
    object      epsilon;
}
// * * * * * * * * * * * * * * * * * * * * * * * * * * * * * * * * * * * * * //

#include        "include/initialConditions"

dimensions      [0 2 -3 0 0 0 0];

internalField   uniform $turbulentEpsilon;

boundaryField
{
    #includeEtc "caseDicts/setConstraintTypes"
    
    "(inletWater)"
    {
        type            fixedValue;
        value           $internalField;
    }

    "(outlet)"
    {
        type            zeroGradient;
    }

    "(right|left|inletWall|bottom|interface2)"
    {
        type            zeroGradient;
    }

    lid 
    {
        type            inletOutlet;
        inletValue      $internalField;
        value           $internalField;
    }

}


// ************************************************************************* //
