/*--------------------------------*- C++ -*----------------------------------*\
  =========                 |
  \\      /  F ield         | OpenFOAM: The Open Source CFD Toolbox
   \\    /   O peration     | Website:  https://openfoam.org
    \\  /    A nd           | Version:  8
     \\/     M anipulation  |
\*---------------------------------------------------------------------------*/
FoamFile
{
    version     2.0;
    format      ascii;
    class       dictionary;
    object      setFieldsDict;
}
// * * * * * * * * * * * * * * * * * * * * * * * * * * * * * * * * * * * * * //

defaultFieldValues
(
    volScalarFieldValue alpha.water 0
);

regions
(
    boxToCell
    {
        box (-1000 -1000 -1000) (1000 -8 566.63);
        
        fieldValues
        (
            volScalarFieldValue alpha.water 1
            volVectorFieldValue U (0 0 0)
        );
    }
        boxToCell
    {
        box (-1000 -1000 -1000) (1000 9 557.63);
        
        fieldValues
        (
            volScalarFieldValue alpha.water 1
            volVectorFieldValue U (0 0 0)
        );
    }
        boxToCell
    {
        box (-1000 -1000 -1000) (1000 1 563.4);
        
        fieldValues
        (
            volScalarFieldValue alpha.water 1
            volVectorFieldValue U (0 0 0)
        );
    }
);

// ************************************************************************* //
