/*--------------------------------*- C++ -*----------------------------------*\
| =========                 |                                                 |
| \\      /  F ield         | OpenFOAM: The Open Source CFD Toolbox           |
|  \\    /   O peration     | Version:  2.1.0                                 |
|   \\  /    A nd           | Web:      www.OpenFOAM.org                      |
|    \\/     M anipulation  |                                                 |
\*---------------------------------------------------------------------------*/
FoamFile
{
    version     2.0;
    format      ascii;
    class       dictionary;
    object      topoSetDict;
}

// * * * * * * * * * * * * * * * * * * * * * * * * * * * * * * * * * * * * * //
actions
(
    {
        name    inletWater;
        type    faceSet;
        action  new;
        source  boxToFace;
        sourceInfo
        {
            box (0 -0.05 0) (10 0.05 1); 
        }
    }
    {
        name    inletWall;
        type    faceSet;
        action  new;
        source  boxToFace;
        sourceInfo
        {
            box (0 -0.05 1) (10 .05 10); 
        }
    }

);

// ************************************************************************* //